Circuit: * D:\ACA\Sem4\Electronics 3\project\bjt nots.asc

C3: both pins shorted together -- ignoring.
WARNING: Node NC_02 is floating.

WARNING: Less than two connections to node NC_01.  This node is used by V2.
WARNING: Less than two connections to node NC_02.  This node is used by V2.
Direct Newton iteration for .op point succeeded.

Date: Sun Apr 25 10:33:03 2021
Total elapsed time: 2.068 seconds.

tnom = 27
temp = 27
method = modified trap
totiter = 998770
traniter = 998764
tranpoints = 291344
accept = 207333
rejected = 84011
matrix size = 20
fillins = 8
solver = Normal
Matrix Compiler1: 1.86 KB object code size  0.3/0.2/[0.1]
Matrix Compiler2: 1.81 KB object code size  0.1/0.2/[0.1]

