Circuit: * D:\ACA\Sem4\Electronics 3\project\Draft19.asc

Warning: Multiple definitions of model "aons66402" Type: Vdmos1
WARNING: Node X1:X1:N001 is floating.
WARNING: Node X1:X1:N002 is floating.
WARNING: Node X1:X2:N001 is floating.
WARNING: Node X1:X2:N002 is floating.
WARNING: Node X1:X3:N001 is floating.
WARNING: Node X1:X3:N002 is floating.
WARNING: Node X1:AND_1:NOT_1:N001 is floating.
WARNING: Node X1:AND_1:NOT_1:N002 is floating.
WARNING: Node X1:AND_1:NOR_1:N001 is floating.
WARNING: Node X1:AND_2:NOT_1:N001 is floating.
WARNING: Node X1:AND_2:NOT_1:N002 is floating.
WARNING: Node X1:AND_2:NOR_1:N001 is floating.
WARNING: Node X1:AND_3:NOT_1:N001 is floating.
WARNING: Node X1:AND_3:NOT_1:N002 is floating.
WARNING: Node X1:AND_3:NOR_1:N001 is floating.
WARNING: Node X1:AND_4:NOT_1:N001 is floating.
WARNING: Node X1:AND_4:NOT_1:N002 is floating.
WARNING: Node X1:AND_4:NOR_1:N001 is floating.
WARNING: Node X1:AND_5:NOT_1:N001 is floating.
WARNING: Node X1:AND_5:NOT_1:N002 is floating.
WARNING: Node X1:AND_5:NOR_1:N001 is floating.
WARNING: Node X1:AND_6:NOT_1:N001 is floating.
WARNING: Node X1:AND_6:NOT_1:N002 is floating.
WARNING: Node X1:AND_6:NOR_1:N001 is floating.
WARNING: Node X1:AND_7:NOT_1:N001 is floating.
WARNING: Node X1:AND_7:NOT_1:N002 is floating.
WARNING: Node X1:AND_7:NOR_1:N001 is floating.
WARNING: Node X1:AND_8:NOT_1:N001 is floating.
WARNING: Node X1:AND_8:NOT_1:N002 is floating.
WARNING: Node X1:AND_8:NOR_1:N001 is floating.
WARNING: Node X1:X4:NOR_1:N001 is floating.
WARNING: Node X1:X4:NOT_1:N001 is floating.
WARNING: Node X1:X4:NOT_1:N002 is floating.
WARNING: Node X1:X12:NOR_1:N001 is floating.
WARNING: Node X1:X12:NOT_1:N001 is floating.
WARNING: Node X1:X12:NOT_1:N002 is floating.
WARNING: Node X1:X13:NOR_1:N001 is floating.
WARNING: Node X1:X13:NOT_1:N001 is floating.
WARNING: Node X1:X13:NOT_1:N002 is floating.
WARNING: Node X1:X14:NOR_1:N001 is floating.
WARNING: Node X1:X14:NOT_1:N001 is floating.
WARNING: Node X1:X14:NOT_1:N002 is floating.
WARNING: Node X1:X15:NOR_1:N001 is floating.
WARNING: Node X1:X15:NOT_1:N001 is floating.
WARNING: Node X1:X15:NOT_1:N002 is floating.
WARNING: Node X1:X16:NOR_1:N001 is floating.
WARNING: Node X1:X16:NOT_1:N001 is floating.
WARNING: Node X1:X16:NOT_1:N002 is floating.
WARNING: Node X1:X5:NOR_1:N001 is floating.
WARNING: Node X1:X5:NOT_1:N001 is floating.
WARNING: Node X1:X5:NOT_1:N002 is floating.

Direct Newton iteration failed to find .op point.  (Use ".option noopiter" to skip.)
Starting Gmin stepping
Gmin = 10
Gmin = 1.07374
Gmin = 0.115292
Gmin = 0.0123794
Gmin = 0.00132923
Gmin = 0.000142725
Gmin = 1.5325e-005
Gmin = 1.6455e-006
Gmin = 1.76685e-007
Gmin = 1.89714e-008
Gmin = 2.03704e-009
Gmin = 2.18725e-010
Gmin = 2.34854e-011
Gmin = 2.52173e-012
Gmin = 2.70769e-013
Gmin = 0
Gmin stepping succeeded in finding the operating point.

Ignoring empty pin current: Ix(x1:gnd)
Ignoring empty pin current: Ix(x1:gnd)
Heightened Def Con from 0.002 to 0.002
Heightened Def Con from 0.002 to 0.002
Heightened Def Con from 0.002 to 0.002
Heightened Def Con from 0.002 to 0.002
Heightened Def Con from 0.002 to 0.002
Heightened Def Con from 0.004 to 0.004
Heightened Def Con from 0.004 to 0.004
Heightened Def Con from 0.004 to 0.004
Heightened Def Con from 0.004 to 0.004
Heightened Def Con from 0.006 to 0.006
Heightened Def Con from 0.006 to 0.006
Heightened Def Con from 0.006 to 0.006
Heightened Def Con from 0.006 to 0.006
Heightened Def Con from 0.008 to 0.008
Heightened Def Con from 0.008 to 0.008
Heightened Def Con from 0.008 to 0.008

Date: Mon May 03 23:57:54 2021
Total elapsed time: 1.282 seconds.

tnom = 27
temp = 27
method = modified trap
totiter = 22764
traniter = 22225
tranpoints = 4549
accept = 3829
rejected = 736
matrix size = 131
fillins = 152
solver = Normal
Thread vector: 19.9/10.6[8] 36.4/14.5[8] 10.5/5.1[8] 0.8/3.1[1]  2592/500
Matrix Compiler1: 28.60 KB object code size  11.2/7.8/[3.1]
Matrix Compiler2: 19.72 KB object code size  6.0/8.1/[1.0]

