Circuit: * D:\ACA\Sem4\Electronics 3\project\Draft2.asc

Warning: Multiple definitions of model "aons66402" Type: Vdmos1
WARNING: Node X1:N001 is floating.
WARNING: Node X1:N002 is floating.

WARNING: Less than two connections to node OUT.  This node is used by M1.
Direct Newton iteration for .op point succeeded.
Ignoring empty pin current: Ix(x1:gnd)
Ignoring empty pin current: Ix(x1:gnd)

Date: Sun May 02 15:52:56 2021
Total elapsed time: 0.081 seconds.

tnom = 27
temp = 27
method = modified trap
totiter = 10111
traniter = 10087
tranpoints = 3710
accept = 3276
rejected = 434
matrix size = 10
fillins = 0
solver = Normal
Matrix Compiler1: 418 bytes object code size  0.1/0.1/[0.0]
Matrix Compiler2: 900 bytes object code size  0.1/0.1/[0.1]

