Circuit: * D:\ACA\Sem4\Electronics 3\project\Draft12.asc

Warning: Multiple definitions of model "aons66402" Type: Vdmos1
Direct Newton iteration for .op point succeeded.

Date: Mon May 03 11:26:24 2021
Total elapsed time: 0.190 seconds.

tnom = 27
temp = 27
method = modified trap
totiter = 4688
traniter = 4672
tranpoints = 2208
accept = 2087
rejected = 121
matrix size = 7
fillins = 0
solver = Normal
Matrix Compiler1: 348 bytes object code size  0.1/0.0/[0.0]
Matrix Compiler2: 583 bytes object code size  0.1/0.1/[0.0]

