Circuit: * D:\ACA\Sem4\Electronics 3\project\Draft8.asc

Warning: Multiple definitions of model "aons66402" Type: Vdmos1
WARNING: Node X1:X1:N001 is floating.
WARNING: Node X1:X1:N002 is floating.
WARNING: Node X2:X1:N001 is floating.
WARNING: Node X2:X1:N002 is floating.
WARNING: Node X3:X1:N001 is floating.
WARNING: Node X3:X1:N002 is floating.
WARNING: Node X4:X1:N001 is floating.
WARNING: Node X4:X1:N002 is floating.
WARNING: Node NC_01 is floating.
WARNING: Node X5:X1:N001 is floating.
WARNING: Node X5:X1:N002 is floating.
WARNING: Node X6:X1:N001 is floating.
WARNING: Node X6:X1:N002 is floating.

Direct Newton iteration for .op point succeeded.

Date: Sun May 02 20:33:08 2021
Total elapsed time: 0.410 seconds.

tnom = 27
temp = 27
method = modified trap
totiter = 6072
traniter = 6042
tranpoints = 2184
accept = 2054
rejected = 130
matrix size = 28
fillins = 0
solver = Normal
Matrix Compiler1: 2.18 KB object code size  0.4/0.2/[0.1]
Matrix Compiler2: 2.95 KB object code size  0.2/0.3/[0.2]

