Circuit: * D:\ACA\Sem4\Electronics 3\project\Draft5.asc

Warning: Multiple definitions of model "aons66402" Type: Vdmos1
WARNING: Node NC_01 is floating.
WARNING: Node NC_02 is floating.
WARNING: Node NC_05 is floating.
WARNING: Node NC_03 is floating.
WARNING: Node NC_04 is floating.

Direct Newton iteration for .op point succeeded.
Ignoring empty pin current: Ix(x1:gnd)
Ignoring empty pin current: Ix(x1:gnd)

Date: Tue Apr 27 11:45:01 2021
Total elapsed time: 0.108 seconds.

tnom = 27
temp = 27
method = modified trap
totiter = 2112
traniter = 2088
tranpoints = 1045
accept = 1045
rejected = 0
matrix size = 12
fillins = 0
solver = Normal
Matrix Compiler1: 856 bytes object code size  0.1/0.1/[0.1]
Matrix Compiler2: 1.10 KB object code size  0.1/0.1/[0.1]

