Circuit: * D:\ACA\Sem4\Electronics 3\project\fet nots.asc

Warning: Multiple definitions of model "aons66402" Type: Vdmos1
WARNING: Node NC_02 is floating.

WARNING: Less than two connections to node NC_01.  This node is used by V2.
WARNING: Less than two connections to node NC_02.  This node is used by V2.
Direct Newton iteration for .op point succeeded.

Date: Sun May 02 21:27:33 2021
Total elapsed time: 1.290 seconds.

tnom = 27
temp = 27
method = modified trap
totiter = 382782
traniter = 382776
tranpoints = 128012
accept = 87935
rejected = 40077
matrix size = 11
fillins = 6
solver = Normal
Matrix Compiler1: 788 bytes object code size  0.3/0.2/[0.1]
Matrix Compiler2: 995 bytes object code size  0.2/0.2/[0.1]

