Circuit: * D:\ACA\Sem4\Electronics 3\project\nmos_switch_test.asc

Warning: Multiple definitions of model "aons66402" Type: Vdmos1
.OP point found by inspection.
Ignoring empty pin current: Ix(x1:gnd)
Ignoring empty pin current: Ix(x1:gnd)

Date: Mon May 03 12:20:32 2021
Total elapsed time: 0.102 seconds.

tnom = 27
temp = 27
method = modified trap
totiter = 6388
traniter = 6388
tranpoints = 3105
accept = 2952
rejected = 153
matrix size = 17
fillins = 0
solver = Normal
Matrix Compiler1: 776 bytes object code size  0.2/0.1/[0.1]
Matrix Compiler2: 1.34 KB object code size  0.1/0.1/[0.1]

