Circuit: * D:\ACA\Sem4\Electronics 3\project\nmos passgate test.asc

Warning: Multiple definitions of model "aons66402" Type: Vdmos1
.OP point found by inspection.

Date: Mon May 03 19:33:43 2021
Total elapsed time: 0.055 seconds.

tnom = 27
temp = 27
method = modified trap
totiter = 4573
traniter = 4573
tranpoints = 2217
accept = 2126
rejected = 91
matrix size = 5
fillins = 0
solver = Normal
Matrix Compiler1:       8 opcodes  0.0/[0.0]/0.0
Matrix Compiler2: 335 bytes object code size  0.0/0.0/[0.0]

