Circuit: * D:\ACA\Sem4\Electronics 3\project\NOR test.asc

Warning: Multiple definitions of model "aons66402" Type: Vdmos1
WARNING: Node X1:N001 is floating.

Direct Newton iteration for .op point succeeded.

Date: Sun Apr 25 13:12:05 2021
Total elapsed time: 0.160 seconds.

tnom = 27
temp = 27
method = modified trap
totiter = 5856
traniter = 5830
tranpoints = 2259
accept = 2125
rejected = 134
matrix size = 9
fillins = 0
solver = Normal
Matrix Compiler1: 448 bytes object code size  0.1/0.1/[0.0]
Matrix Compiler2: 817 bytes object code size  0.1/0.1/[0.1]

