Circuit: * D:\ACA\Sem4\Electronics 3\project\NOR.asc

Warning: Multiple definitions of model "aons66402" Type: Vdmos1
WARNING: Node N001 is floating.
WARNING: Node N003 is floating.

Direct Newton iteration for .op point succeeded.

Date: Sun Apr 25 12:07:11 2021
Total elapsed time: 0.067 seconds.

tnom = 27
temp = 27
method = modified trap
totiter = 2120
traniter = 2094
tranpoints = 1048
accept = 1048
rejected = 0
matrix size = 6
fillins = 0
solver = Normal
Matrix Compiler1: 298 bytes object code size  0.1/0.1/[0.0]
Matrix Compiler2: 462 bytes object code size  0.1/0.1/[0.0]

