Circuit: * D:\ACA\Sem4\Electronics 3\project\NOT test.asc

Warning: Multiple definitions of model "aons66402" Type: Vdmos1
WARNING: Node X1:N001 is floating.
WARNING: Node X1:N002 is floating.

Direct Newton iteration for .op point succeeded.
Ignoring empty pin current: Ix(x1:gnd)
Ignoring empty pin current: Ix(x1:gnd)

Date: Sun Apr 25 13:46:53 2021
Total elapsed time: 0.090 seconds.

tnom = 27
temp = 27
method = modified trap
totiter = 5640
traniter = 5616
tranpoints = 2099
accept = 1981
rejected = 118
matrix size = 7
fillins = 0
solver = Normal
Matrix Compiler1: 268 bytes object code size  0.1/0.0/[0.0]
Matrix Compiler2: off  [0.1]/0.1/0.1

