Circuit: * D:\ACA\Sem4\Electronics 3\project\switch_matrix test.asc

Warning: Multiple definitions of model "aons66402" Type: Vdmos1
.OP point found by inspection.
Ignoring empty pin current: Ix(x2:gnd)
Ignoring empty pin current: Ix(x2:gnd)

Date: Mon May 03 14:05:55 2021
Total elapsed time: 0.199 seconds.

tnom = 27
temp = 27
method = modified trap
totiter = 6337
traniter = 6337
tranpoints = 3088
accept = 2943
rejected = 145
matrix size = 17
fillins = 0
solver = Normal
Matrix Compiler1: 776 bytes object code size  0.2/0.1/[0.1]
Matrix Compiler2: 1.34 KB object code size  0.1/0.2/[0.1]

