Circuit: * D:\ACA\Github\Electronics3\Circuit_1_Dilmi\ringN.asc

Warning: Multiple definitions of model "aons66402" Type: Vdmos1
WARNING: Less than two connections to node NC_01.  This node is used by V§PULSE.
Direct Newton iteration for .op point succeeded.

Date: Tue May 04 14:37:37 2021
Total elapsed time: 2.013 seconds.

tnom = 27
temp = 27
method = modified trap
totiter = 762643
traniter = 762639
tranpoints = 254594
accept = 174496
rejected = 80098
matrix size = 10
fillins = 6
solver = Normal
Matrix Compiler1: 738 bytes object code size  0.1/0.1/[0.1]
Matrix Compiler2: 928 bytes object code size  0.1/0.1/[0.1]

